Info: SIMULATION PARAMETERS:
Info: TIMESTEP               2
Info: NUMBER OF STEPS        0
Info: STEPS PER CYCLE        10
Info: PERIODIC CELL BASIS 1  50 0 0
Info: PERIODIC CELL BASIS 2  0 70 0
Info: PERIODIC CELL BASIS 3  0 0 50
Info: PERIODIC CELL CENTER   0 0 0
Info: WRAPPING WATERS AROUND PERIODIC BOUNDARIES ON OUTPUT.
Info: WRAPPING ALL CLUSTERS AROUND PERIODIC BOUNDARIES ON OUTPUT.
Info: FIRST LDB TIMESTEP     50
Info: LAST LDB TIMESTEP     -1
Info: HOM BACKGROUND SCALING 1
Info: PME BACKGROUND SCALING 1
Info: MIN ATOMS PER PATCH    40
Info: INITIAL TEMPERATURE    300
Info: CENTER OF MASS MOVING INITIALLY? NO
Info: REMOVING CENTER OF MASS DRIFT DURING SIMULATION
Info: DIELECTRIC             1
Info: EXCLUDE                SCALED ONE-FOUR
Info: 1-4 ELECTROSTATICS SCALED BY 1
Info: MODIFIED 1-4 VDW PARAMETERS WILL BE USED
Info: DCD FILENAME           ../output/equilibration.dcd
Info: DCD FREQUENCY          100
Info: DCD FIRST STEP         100
Info: DCD FILE WILL CONTAIN UNIT CELL DATA
Info: XST FILENAME           ../output/equilibration.xst
Info: XST FREQUENCY          100
Info: NO VELOCITY DCD OUTPUT
Info: NO FORCE DCD OUTPUT
Info: OUTPUT FILENAME        ../output/equilibration
Info: BINARY OUTPUT FILES WILL BE USED
Info: RESTART FILENAME       ../output/equilibration.restart
Info: RESTART FREQUENCY      1000
Info: BINARY RESTART FILES WILL BE USED
Info: SWITCHING ACTIVE
Info: SWITCHING ON           10
Info: SWITCHING OFF          12
Info: PAIRLIST DISTANCE      14
Info: PAIRLIST SHRINK RATE   0.01
Info: PAIRLIST GROW RATE     0.01
Info: PAIRLIST TRIGGER       0.3
Info: PAIRLISTS PER CYCLE    2
Info: PAIRLISTS ENABLED
Info: MARGIN                 0.495
Info: HYDROGEN GROUP CUTOFF  2.5
Info: PATCH DIMENSION        16.995
Info: ENERGY OUTPUT STEPS    100
Info: CROSSTERM ENERGY INCLUDED IN DIHEDRAL
Info: TIMING OUTPUT STEPS    1000
Info: PRESSURE OUTPUT STEPS  100
Info: LANGEVIN DYNAMICS ACTIVE
Info: LANGEVIN TEMPERATURE   300
Info: LANGEVIN USING BBK INTEGRATOR
Info: LANGEVIN DAMPING COEFFICIENT IS 1 INVERSE PS
Info: LANGEVIN DYNAMICS NOT APPLIED TO HYDROGENS
Info: LANGEVIN PISTON PRESSURE CONTROL ACTIVE
Info:        TARGET PRESSURE IS 1.01325 BAR
Info:     OSCILLATION PERIOD IS 200 FS
Info:             DECAY TIME IS 100 FS
Info:     PISTON TEMPERATURE IS 300 K
Info:       PRESSURE CONTROL IS GROUP-BASED
Info:    INITIAL STRAIN RATE IS 0 0 0
Info:       CELL FLUCTUATION IS ISOTROPIC
Info: PARTICLE MESH EWALD (PME) ACTIVE
Info: PME TOLERANCE               1e-06
Info: PME EWALD COEFFICIENT       0.257952
Info: PME INTERPOLATION ORDER     4
Info: PME GRID DIMENSIONS         54 72 54
Info: PME MAXIMUM GRID SPACING    1
Info: FULL ELECTROSTATIC EVALUATION FREQUENCY      2
Info: USING VERLET I (r-RESPA) MTS SCHEME.
Info: C1 SPLITTING OF LONG RANGE ELECTROSTATICS
Info: PLACING ATOMS IN PATCHES BY HYDROGEN GROUPS
Info: RIGID BONDS TO HYDROGEN : ALL
Info:         ERROR TOLERANCE : 1e-08
Info:          MAX ITERATIONS : 100
Info: RIGID WATER USING SETTLE ALGORITHM
Info: RANDOM NUMBER SEED     1707153762
Info: USE HYDROGEN BONDS?    NO
Info: COORDINATE PDB         ionized.pdb
Info: STRUCTURE FILE         ionized.psf
Info: PARAMETER file: CHARMM format!
Info: PARAMETERS             ../../updated_CHARMM_topology_files/par_all36m_prot.inp
Info: PARAMETERS             ../../updated_CHARMM_topology_files/par_water_ions.inp
Info: USING ARITHMETIC MEAN TO COMBINE L-J SIGMA PARAMETERS
Info: SUMMARY OF PARAMETERS:
Info: 135 BONDS
Info: 365 ANGLES
Info: 706 DIHEDRAL
Info: 35 IMPROPER
Info: 6 CROSSTERM
Info: 68 VDW
Info: 3 VDW_PAIRS
Info: 0 NBTHOLE_PAIRS
Info:
Info: STRUCTURE SUMMARY:
Info: 15980 ATOMS
Info: 11061 BONDS
Info: 7138 ANGLES
Info: 3262 DIHEDRALS
Info: 204 IMPROPERS
Info: 71 CROSSTERMS
Info: 0 EXCLUSIONS
Info: 15389 RIGID BONDS
Info: 32551 DEGREES OF FREEDOM
Info: 5518 HYDROGEN GROUPS
Info: 4 ATOMS IN LARGEST HYDROGEN GROUP
Info: 5518 MIGRATION GROUPS
Info: 4 ATOMS IN LARGEST MIGRATION GROUP
Info: TOTAL MASS = 97361.9 amu
Info: TOTAL CHARGE = 9.62988e-07 e
Info: MASS DENSITY = 0.923869 g/cm^3
Info: ATOM DENSITY = 0.0913143 atoms/A^3
Info:
Info: ADDED 21399 IMPLICIT EXCLUSIONS
Info: NONBONDED TABLE R-SQUARED SPACING: 0.0625
Info: NONBONDED TABLE SIZE: 769 POINTS
Info: REMOVING COM VELOCITY 0.010363 0.0279839 -0.0565734
TCL: Minimizing for 5000 steps
ETITLE: TS BOND ANGLE DIHED IMPRP ELECT VDW BOUNDARY MISC KINETIC TOTAL TEMP POTENTIAL TOTAL3 TEMPAVG PRESSURE GPRESSURE VOLUME PRESSAVG GPRESSAVG
ENERGY: 0 199.4533 274.2098 728.8880 6.3760 -46991.2922 750056.2402 0.0000 0.0000 0.0000 704273.8752 0.0000 704273.8752 704273.8752 0.0000 1202636.9974 1313701.1255 175000.0000 1202636.9974 1313701.1255
ENERGY: 1000 75.7163 237.0596 661.6566 7.8168 -68044.4999 6695.7928 0.0000 0.0000 0.0000 -60366.4578 0.0000 -60366.4578 -60366.4578 0.0000 17961.9545 -3379.4366 175000.0000 17961.9545 -3379.4366
ENERGY: 2000 73.9136 240.0624 660.2179 8.1067 -69539.8121 7238.4796 0.0000 0.0000 0.0000 -61319.0318 0.0000 -61319.0318 -61319.0318 0.0000 18908.6977 -2881.9293 175000.0000 18908.6977 -2881.9293
ENERGY: 3000 74.3043 236.3700 664.0998 7.5262 -70225.7517 7531.0636 0.0000 0.0000 0.0000 -61712.3879 0.0000 -61712.3879 -61712.3879 0.0000 19409.8142 -2626.8646 175000.0000 19409.8142 -2626.8646
ENERGY: 4000 74.0145 238.1660 661.8266 7.2957 -70513.0867 7631.1999 0.0000 0.0000 0.0000 -61900.5840 0.0000 -61900.5840 -61900.5840 0.0000 19588.1062 -2543.6870 175000.0000 19588.1062 -2543.6870
ENERGY: 5000 73.5669 237.2734 662.1233 7.2147 -70607.7133 7653.4589 0.0000 0.0000 0.0000 -61974.0760 0.0000 -61974.0760 -61974.0760 0.0000 19639.6753 -2520.3236 175000.0000 19639.6753 -2520.3236
TCL: Running for 15000 steps
ETITLE: TS BOND ANGLE DIHED IMPRP ELECT VDW BOUNDARY MISC KINETIC TOTAL TEMP POTENTIAL TOTAL3 TEMPAVG PRESSURE GPRESSURE VOLUME PRESSAVG GPRESSAVG
ENERGY: 5000 73.5669 237.2734 662.1233 7.2147 -70607.7133 7653.4589 0.0000 0.0000 0.0000 -61974.0760 0.0000 -61974.0760 -61974.2532 0.0000 -3965.9616 -3917.6469 175000.0000 -3965.9616 -3917.6469
ENERGY: 8000 241.4108 651.0950 737.6558 30.0463 -59996.2098 5348.3197 0.0000 0.0000 8269.4366 -44718.2456 255.6831 -52987.6821 -44694.8256 257.4376 -314.3410 -277.1079 153770.6373 36.1232 35.3321
ENERGY: 11000 227.7974 727.3103 728.2051 38.7712 -57648.8765 4970.0402 0.0000 0.0000 9511.9028 -41444.8496 294.0989 -50956.7523 -41419.8201 293.5419 192.6487 228.2871 154848.1205 3.7823 3.4728
ENERGY: 14000 258.3741 704.4123 739.0569 36.7689 -57154.6974 4726.2862 0.0000 0.0000 9619.0149 -41070.7842 297.4107 -50689.7990 -41041.4759 296.3996 -170.4959 -146.8695 156187.5463 -6.8642 -7.0631
ENERGY: 17000 264.3566 684.8027 735.8735 36.9734 -57108.0829 4792.3099 0.0000 0.0000 9560.1971 -41033.5698 295.5921 -50593.7668 -41004.1408 295.9042 76.8672 112.2542 155430.1494 36.3161 36.1087
ENERGY: 20000 219.5496 692.4112 760.5055 37.8134 -56898.5564 4715.5675 0.0000 0.0000 9632.9544 -40839.7549 297.8417 -50472.7092 -40813.0458 298.0220 -10.2958 27.7676 156421.6731 -25.4104 -25.3554
