Info: SIMULATION PARAMETERS:
Info: TIMESTEP               2
Info: NUMBER OF STEPS        0
Info: STEPS PER CYCLE        10
Info: PERIODIC CELL BASIS 1  85 0 0
Info: PERIODIC CELL BASIS 2  0 85 0
Info: PERIODIC CELL BASIS 3  0 0 85
Info: PERIODIC CELL CENTER   0 0 0
Info: WRAPPING WATERS AROUND PERIODIC BOUNDARIES ON OUTPUT.
Info: WRAPPING ALL CLUSTERS AROUND PERIODIC BOUNDARIES ON OUTPUT.
Info: FIRST LDB TIMESTEP     50
Info: LAST LDB TIMESTEP     -1
Info: HOM BACKGROUND SCALING 1
Info: PME BACKGROUND SCALING 1
Info: MIN ATOMS PER PATCH    40
Info: VELOCITY FILE          ../output/equilibrationNVT.restart.vel
Info: CENTER OF MASS MOVING INITIALLY? NO
Info: REMOVING CENTER OF MASS DRIFT DURING SIMULATION
Info: DIELECTRIC             1
Info: EXCLUDE                SCALED ONE-FOUR
Info: 1-4 ELECTROSTATICS SCALED BY 1
Info: MODIFIED 1-4 VDW PARAMETERS WILL BE USED
Info: DCD FILENAME           ../output2/equilNpT.dcd
Info: DCD FREQUENCY          5000
Info: DCD FIRST STEP         5000
Info: DCD FILE WILL CONTAIN UNIT CELL DATA
Info: XST FILENAME           ../output2/equilNpT.xst
Info: XST FREQUENCY          5000
Info: NO VELOCITY DCD OUTPUT
Info: NO FORCE DCD OUTPUT
Info: OUTPUT FILENAME        ../output2/equilNpT
Info: BINARY OUTPUT FILES WILL BE USED
Info: RESTART FILENAME       ../output2/equilNpT.restart
Info: RESTART FREQUENCY      50000
Info: BINARY RESTART FILES WILL BE USED
Info: SWITCHING ACTIVE
Info: SWITCHING ON           10
Info: SWITCHING OFF          12
Info: PAIRLIST DISTANCE      14
Info: PAIRLIST SHRINK RATE   0.01
Info: PAIRLIST GROW RATE     0.01
Info: PAIRLIST TRIGGER       0.3
Info: PAIRLISTS PER CYCLE    2
Info: PAIRLISTS ENABLED
Info: MARGIN                 0.495
Info: HYDROGEN GROUP CUTOFF  2.5
Info: PATCH DIMENSION        16.995
Info: ENERGY OUTPUT STEPS    5000
Info: CROSSTERM ENERGY INCLUDED IN DIHEDRAL
Info: TIMING OUTPUT STEPS    50000
Info: PRESSURE OUTPUT STEPS  5000
Info: LANGEVIN DYNAMICS ACTIVE
Info: LANGEVIN TEMPERATURE   300
Info: LANGEVIN USING BBK INTEGRATOR
Info: LANGEVIN DAMPING COEFFICIENT IS 1 INVERSE PS
Info: LANGEVIN DYNAMICS NOT APPLIED TO HYDROGENS
Info: LANGEVIN PISTON PRESSURE CONTROL ACTIVE
Info:        TARGET PRESSURE IS 1.01325 BAR
Info:     OSCILLATION PERIOD IS 200 FS
Info:             DECAY TIME IS 100 FS
Info:     PISTON TEMPERATURE IS 300 K
Info:       PRESSURE CONTROL IS GROUP-BASED
Info:    INITIAL STRAIN RATE IS 0 0 0
Info:       CELL FLUCTUATION IS ISOTROPIC
Info: PARTICLE MESH EWALD (PME) ACTIVE
Info: PME TOLERANCE               1e-06
Info: PME EWALD COEFFICIENT       0.257952
Info: PME INTERPOLATION ORDER     4
Info: PME GRID DIMENSIONS         88 88 88
Info: PME MAXIMUM GRID SPACING    1
Info: FULL ELECTROSTATIC EVALUATION FREQUENCY      2
Info: USING VERLET I (r-RESPA) MTS SCHEME.
Info: C1 SPLITTING OF LONG RANGE ELECTROSTATICS
Info: PLACING ATOMS IN PATCHES BY HYDROGEN GROUPS
Info: RIGID BONDS TO HYDROGEN : ALL
Info:         ERROR TOLERANCE : 1e-08
Info:          MAX ITERATIONS : 100
Info: RIGID WATER USING SETTLE ALGORITHM
Info: RANDOM NUMBER SEED     1708150287
Info: USE HYDROGEN BONDS?    NO
Info: COORDINATE PDB         ../input/ionized.pdb
Info: STRUCTURE FILE         ../input/ionized.psf
Info: PARAMETER file: CHARMM format!
Info: PARAMETERS             ../../updated_CHARMM_topology_files/par_all36m_prot.inp
Info: PARAMETERS             ../../updated_CHARMM_topology_files/par_water_ions.inp
Info: PARAMETERS             ../../updated_CHARMM_topology_files/mod_par_all36_cgenff.inp
Info: USING ARITHMETIC MEAN TO COMBINE L-J SIGMA PARAMETERS
Info: BINARY COORDINATES     ../output/equilibrationNVT.restart.coor
Info: SUMMARY OF PARAMETERS:
Info: 588 BONDS
Info: 1752 ANGLES
Info: 4140 DIHEDRAL
Info: 139 IMPROPER
Info: 6 CROSSTERM
Info: 216 VDW
Info: 3 VDW_PAIRS
Info: 0 NBTHOLE_PAIRS
Info: STRUCTURE SUMMARY:
Info: 57903 ATOMS
Info: 39119 BONDS
Info: 21613 ANGLES
Info: 3958 DIHEDRALS
Info: 204 IMPROPERS
Info: 71 CROSSTERMS
Info: 0 EXCLUSIONS
Info: 57171 RIGID BONDS
Info: 116538 DEGREES OF FREEDOM
Info: 19523 HYDROGEN GROUPS
Info: 4 ATOMS IN LARGEST HYDROGEN GROUP
Info: 19523 MIGRATION GROUPS
Info: 4 ATOMS IN LARGEST MIGRATION GROUP
Info: TOTAL MASS = 349200 amu
Info: TOTAL CHARGE = 1.35042e-06 e
Info: MASS DENSITY = 0.944227 g/cm^3
Info: ATOM DENSITY = 0.0942854 atoms/A^3
Info: ADDED 64628 IMPLICIT EXCLUSIONS
Info: NONBONDED TABLE R-SQUARED SPACING: 0.0625
Info: NONBONDED TABLE SIZE: 769 POINTS
Info: REMOVING COM VELOCITY 0.000642117 -0.0025809 -0.00186817
TCL: Running for 500000 steps
ETITLE: TS BOND ANGLE DIHED IMPRP ELECT VDW BOUNDARY MISC KINETIC TOTAL TEMP POTENTIAL TOTAL3 TEMPAVG PRESSURE GPRESSURE VOLUME PRESSAVG GPRESSAVG
ENERGY: 0 281.7544 865.4069 886.2354 33.0598 -209299.9837 19487.4417 0.0000 0.0000 32482.2426 -155263.8428 280.5232 -187746.0854 -155188.5463 280.5232 -1407.4311 -1375.4072 614125.0000 -1407.4311 -1375.4072
ENERGY: 100000 264.2765 847.3960 881.7264 39.7936 -207321.2825 19458.4014 0.0000 0.0000 34669.1214 -151160.5672 299.4096 -185829.6886 -151077.5139 298.8942 102.0627 136.2964 570886.9044 0.0435 -0.0049
ENERGY: 200000 286.9403 818.9963 857.4440 35.8158 -207442.5634 19130.5337 0.0000 0.0000 35018.7933 -151294.0401 302.4294 -186312.8334 -151210.2071 299.9880 -32.2624 8.8033 569492.8709 3.1916 3.1928
ENERGY: 300000 275.8483 858.7578 840.5009 27.0519 -206902.0872 18924.6087 0.0000 0.0000 34649.3401 -151325.9796 299.2387 -185975.3196 -151239.7566 299.7582 -170.3985 -132.3284 571180.2639 0.4715 0.4427
ENERGY: 400000 271.4735 863.9581 847.2755 33.8614 -207201.4898 19265.1030 0.0000 0.0000 34392.3215 -151527.4968 297.0191 -185919.8184 -151441.1247 298.3230 39.8582 74.3006 568457.1556 4.9525 4.9830
ENERGY: 500000 277.7711 850.0841 843.2347 34.9183 -207301.1606 19058.1213 0.0000 0.0000 34561.6635 -151675.3677 298.4815 -186237.0312 -151589.2297 297.5267 -83.5471 -52.4596 571518.0866 0.6109 0.5895
