Info: SIMULATION PARAMETERS:
Info: TIMESTEP               2
Info: NUMBER OF STEPS        0
Info: STEPS PER CYCLE        10
Info: PERIODIC CELL BASIS 1  82.9662 0 0
Info: PERIODIC CELL BASIS 2  0 82.9662 0
Info: PERIODIC CELL BASIS 3  0 0 82.9662
Info: PERIODIC CELL CENTER   0 0 0
Info: WRAPPING WATERS AROUND PERIODIC BOUNDARIES ON OUTPUT.
Info: WRAPPING ALL CLUSTERS AROUND PERIODIC BOUNDARIES ON OUTPUT.
Info: FIRST LDB TIMESTEP     50
Info: LAST LDB TIMESTEP     -1
Info: HOM BACKGROUND SCALING 1
Info: PME BACKGROUND SCALING 1
Info: MIN ATOMS PER PATCH    40
Info: VELOCITY FILE          ../output_equil_desdeoutput3/equilNpT.restart.vel
Info: CENTER OF MASS MOVING INITIALLY? NO
Info: REMOVING CENTER OF MASS DRIFT DURING SIMULATION
Info: DIELECTRIC             1
Info: EXCLUDE                SCALED ONE-FOUR
Info: 1-4 ELECTROSTATICS SCALED BY 1
Info: MODIFIED 1-4 VDW PARAMETERS WILL BE USED
Info: DCD FILENAME           ../output_2/equilNpT_smd.dcd
Info: DCD FREQUENCY          1000
Info: DCD FIRST STEP         1000
Info: DCD FILE WILL CONTAIN UNIT CELL DATA
Info: XST FILENAME           ../output_2/equilNpT_smd.xst
Info: XST FREQUENCY          1000
Info: NO VELOCITY DCD OUTPUT
Info: NO FORCE DCD OUTPUT
Info: OUTPUT FILENAME        ../output_2/equilNpT_smd
Info: BINARY OUTPUT FILES WILL BE USED
Info: RESTART FILENAME       ../output_2/equilNpT_smd.restart
Info: RESTART FREQUENCY      10000
Info: BINARY RESTART FILES WILL BE USED
Info: SWITCHING ACTIVE
Info: SWITCHING ON           10
Info: SWITCHING OFF          12
Info: PAIRLIST DISTANCE      14
Info: PAIRLIST SHRINK RATE   0.01
Info: PAIRLIST GROW RATE     0.01
Info: PAIRLIST TRIGGER       0.3
Info: PAIRLISTS PER CYCLE    2
Info: PAIRLISTS ENABLED
Info: MARGIN                 0.495
Info: HYDROGEN GROUP CUTOFF  2.5
Info: PATCH DIMENSION        16.995
Info: ENERGY OUTPUT STEPS    1000
Info: CROSSTERM ENERGY INCLUDED IN DIHEDRAL
Info: TIMING OUTPUT STEPS    10000
Info: PRESSURE OUTPUT STEPS  1000
Info: HARMONIC CONSTRAINTS ACTIVE
Info: HARMONIC CONS EXP      2
Info: SELECTED CARTESIAN COMPONENTS OF HARMONIC RESTRAINTS ACTIVE
Info: RESTRAINING X-COMPONENTS OF CARTESIAN COORDINATES!
Info: RESTRAINING Y-COMPONENTS OF CARTESIAN COORDINATES!
Info: RESTRAINING Z-COMPONENTS OF CARTESIAN COORDINATES!
Info: SMD ACTIVE
Info: SMD VELOCITY    0.0001 ANGSTROM/TIMESTEP
Info: SMD DIRECTION   1 0 0
Info: SMD K   10
Info: SMD K2  0
Info: SMD OUTPUT FREQUENCY   1000 TIMESTEPS
Info: SMD FILE moving_atoms.ref
Info: LANGEVIN DYNAMICS ACTIVE
Info: LANGEVIN TEMPERATURE   300
Info: LANGEVIN USING BBK INTEGRATOR
Info: LANGEVIN DAMPING COEFFICIENT IS 1 INVERSE PS
Info: LANGEVIN DYNAMICS NOT APPLIED TO HYDROGENS
Info: LANGEVIN PISTON PRESSURE CONTROL ACTIVE
Info:        TARGET PRESSURE IS 1.01325 BAR
Info:     OSCILLATION PERIOD IS 200 FS
Info:             DECAY TIME IS 100 FS
Info:     PISTON TEMPERATURE IS 300 K
Info:       PRESSURE CONTROL IS GROUP-BASED
Info:    INITIAL STRAIN RATE IS 3.98424e-06 3.98424e-06 3.98424e-06
Info:       CELL FLUCTUATION IS ISOTROPIC
Info: PARTICLE MESH EWALD (PME) ACTIVE
Info: PME TOLERANCE               1e-06
Info: PME EWALD COEFFICIENT       0.257952
Info: PME INTERPOLATION ORDER     4
Info: PME GRID DIMENSIONS         84 84 84
Info: PME MAXIMUM GRID SPACING    1
Info: FULL ELECTROSTATIC EVALUATION FREQUENCY      2
Info: USING VERLET I (r-RESPA) MTS SCHEME.
Info: C1 SPLITTING OF LONG RANGE ELECTROSTATICS
Info: PLACING ATOMS IN PATCHES BY HYDROGEN GROUPS
Info: RIGID BONDS TO HYDROGEN : ALL
Info:         ERROR TOLERANCE : 1e-08
Info:          MAX ITERATIONS : 100
Info: RIGID WATER USING SETTLE ALGORITHM
Info: RANDOM NUMBER SEED     1713983094
Info: USE HYDROGEN BONDS?    NO
Info: COORDINATE PDB         system.pdb
Info: STRUCTURE FILE         system.psf
Info: PARAMETER file: CHARMM format!
Info: PARAMETERS             ../../updated_CHARMM_topology_files/par_all36m_prot.inp
Info: PARAMETERS             ../../updated_CHARMM_topology_files/par_water_ions.inp
Info: PARAMETERS             ../../updated_CHARMM_topology_files/mod_par_all36_cgenff.inp
Info: USING ARITHMETIC MEAN TO COMBINE L-J SIGMA PARAMETERS
Info: BINARY COORDINATES     ../output_equil_desdeoutput3/equilNpT.restart.coor
Info: SUMMARY OF PARAMETERS:
Info: 588 BONDS
Info: 1752 ANGLES
Info: 4140 DIHEDRAL
Info: 139 IMPROPER
Info: 6 CROSSTERM
Info: 216 VDW
Info: 3 VDW_PAIRS
Info: 0 NBTHOLE_PAIRS
Info: STRUCTURE SUMMARY:
Info: 57903 ATOMS
Info: 39119 BONDS
Info: 21613 ANGLES
Info: 3958 DIHEDRALS
Info: 204 IMPROPERS
Info: 71 CROSSTERMS
Info: 0 EXCLUSIONS
Info: 73 CONSTRAINTS
Info: 57171 RIGID BONDS
Info: 116538 DEGREES OF FREEDOM
Info: 19523 HYDROGEN GROUPS
Info: 4 ATOMS IN LARGEST HYDROGEN GROUP
Info: 19523 MIGRATION GROUPS
Info: 4 ATOMS IN LARGEST MIGRATION GROUP
Info: TOTAL MASS = 349200 amu
Info: TOTAL CHARGE = 1.35042e-06 e
Info: MASS DENSITY = 1.01538 g/cm^3
Info: ATOM DENSITY = 0.101391 atoms/A^3
Info: ADDED 64628 IMPLICIT EXCLUSIONS
Info: NONBONDED TABLE R-SQUARED SPACING: 0.0625
Info: NONBONDED TABLE SIZE: 769 POINTS
Info: REDUCING NUMBER OF PATCHES TO IMPROVE LOAD BALANCE
Info: REMOVING COM VELOCITY -0.0035631 0.00168337 0.000293343
Info: 10 SMD ATOMS
TCL: Running for 500000 steps
ETITLE: TS BOND ANGLE DIHED IMPRP ELECT VDW BOUNDARY MISC KINETIC TOTAL TEMP POTENTIAL TOTAL3 TEMPAVG PRESSURE GPRESSURE VOLUME PRESSAVG GPRESSAVG
ENERGY: 0 288.5228 869.7022 862.2072 38.8124 -206867.9466 18886.5088 0.0001 0.0000 34676.0725 -151246.1206 299.4696 -185922.1931 -151165.5839 299.4696 -139.0301 -104.9287 571087.9857 -139.0301 -104.9287
ENERGY: 100000 290.5032 855.3648 870.3113 30.6907 -206993.3166 19064.6349 33.7398 0.0000 34645.8689 -151202.2029 299.2087 -185848.0718 -151120.5200 300.0420 -76.9066 -38.8828 571922.5335 -3.4221 -3.3682
ENERGY: 200000 265.6209 822.5051 855.2011 30.6726 -207225.9607 19264.6981 28.7259 0.0000 34378.7658 -151579.7712 296.9020 -185958.5370 -151498.6660 298.4259 94.2388 129.1695 569627.6672 2.2257 2.2648
ENERGY: 300000 281.9938 862.2228 849.8242 38.7895 -207896.2112 19395.6531 25.5426 0.0000 34674.1310 -151768.0542 299.4528 -186442.1852 -151679.8291 298.0718 -46.6096 -14.8470 570300.3940 -3.3838 -3.3650
ENERGY: 400000 279.8861 832.8559 862.5463 34.8403 -207287.1287 19113.5816 37.1628 0.0000 34225.3542 -151900.9015 295.5771 -186126.2557 -151822.4750 298.7714 -120.7904 -90.6495 570168.1985 -0.0983 -0.1171
ENERGY: 500000 300.7447 875.9138 855.1912 45.0274 -206997.8489 19203.2716 26.2224 0.0000 34774.0650 -150917.4127 300.3159 -185691.4777 -150843.3505 299.6750 105.5623 139.1324 570617.0428 4.5088 4.5246
