Info: SIMULATION PARAMETERS:
Info: TIMESTEP               2
Info: NUMBER OF STEPS        0
Info: STEPS PER CYCLE        10
Info: PERIODIC CELL BASIS 1  85 0 0
Info: PERIODIC CELL BASIS 2  0 85 0
Info: PERIODIC CELL BASIS 3  0 0 85
Info: PERIODIC CELL CENTER   0 0 0
Info: WRAPPING WATERS AROUND PERIODIC BOUNDARIES ON OUTPUT.
Info: WRAPPING ALL CLUSTERS AROUND PERIODIC BOUNDARIES ON OUTPUT.
Info: FIRST LDB TIMESTEP     50
Info: LAST LDB TIMESTEP     -1
Info: HOM BACKGROUND SCALING 1
Info: PME BACKGROUND SCALING 1
Info: MIN ATOMS PER PATCH    40
Info: INITIAL TEMPERATURE    300
Info: CENTER OF MASS MOVING INITIALLY? NO
Info: REMOVING CENTER OF MASS DRIFT DURING SIMULATION
Info: DIELECTRIC             1
Info: EXCLUDE                SCALED ONE-FOUR
Info: 1-4 ELECTROSTATICS SCALED BY 1
Info: MODIFIED 1-4 VDW PARAMETERS WILL BE USED
Info: DCD FILENAME           ../output/equilibrationNVT.dcd
Info: DCD FREQUENCY          100
Info: DCD FIRST STEP         100
Info: DCD FILE WILL CONTAIN UNIT CELL DATA
Info: XST FILENAME           ../output/equilibrationNVT.xst
Info: XST FREQUENCY          100
Info: NO VELOCITY DCD OUTPUT
Info: NO FORCE DCD OUTPUT
Info: OUTPUT FILENAME        ../output/equilibrationNVT
Info: BINARY OUTPUT FILES WILL BE USED
Info: RESTART FILENAME       ../output/equilibrationNVT.restart
Info: RESTART FREQUENCY      1000
Info: BINARY RESTART FILES WILL BE USED
Info: SWITCHING ACTIVE
Info: SWITCHING ON           10
Info: SWITCHING OFF          12
Info: PAIRLIST DISTANCE      14
Info: PAIRLIST SHRINK RATE   0.01
Info: PAIRLIST GROW RATE     0.01
Info: PAIRLIST TRIGGER       0.3
Info: PAIRLISTS PER CYCLE    2
Info: PAIRLISTS ENABLED
Info: MARGIN                 0
Info: HYDROGEN GROUP CUTOFF  2.5
Info: PATCH DIMENSION        16.5
Info: ENERGY OUTPUT STEPS    100
Info: CROSSTERM ENERGY INCLUDED IN DIHEDRAL
Info: TIMING OUTPUT STEPS    1000
Info: PRESSURE OUTPUT STEPS  100
Info: LANGEVIN DYNAMICS ACTIVE
Info: LANGEVIN TEMPERATURE   300
Info: LANGEVIN USING BBK INTEGRATOR
Info: LANGEVIN DAMPING COEFFICIENT IS 1 INVERSE PS
Info: LANGEVIN DYNAMICS NOT APPLIED TO HYDROGENS
Info: PARTICLE MESH EWALD (PME) ACTIVE
Info: PME TOLERANCE               1e-06
Info: PME EWALD COEFFICIENT       0.257952
Info: PME INTERPOLATION ORDER     4
Info: PME GRID DIMENSIONS         88 88 88
Info: PME MAXIMUM GRID SPACING    1
Info: FULL ELECTROSTATIC EVALUATION FREQUENCY      2
Info: USING VERLET I (r-RESPA) MTS SCHEME.
Info: C1 SPLITTING OF LONG RANGE ELECTROSTATICS
Info: PLACING ATOMS IN PATCHES BY HYDROGEN GROUPS
Info: RIGID BONDS TO HYDROGEN : ALL
Info:         ERROR TOLERANCE : 1e-08
Info:          MAX ITERATIONS : 100
Info: RIGID WATER USING SETTLE ALGORITHM
Info: RANDOM NUMBER SEED     1707827946
Info: USE HYDROGEN BONDS?    NO
Info: COORDINATE PDB         ionized.pdb
Info: STRUCTURE FILE         ionized.psf
Info: PARAMETER file: CHARMM format!
Info: PARAMETERS             ../../updated_CHARMM_topology_files/par_all36m_prot.inp
Info: PARAMETERS             ../../updated_CHARMM_topology_files/par_water_ions.inp
Info: PARAMETERS             ../../updated_CHARMM_topology_files/mod_par_all36_cgenff.inp
Info: USING ARITHMETIC MEAN TO COMBINE L-J SIGMA PARAMETERS
Info: SUMMARY OF PARAMETERS:
Info: 588 BONDS
Info: 1752 ANGLES
Info: 4140 DIHEDRAL
Info: 139 IMPROPER
Info: 6 CROSSTERM
Info: 216 VDW
Info: 3 VDW_PAIRS
Info: 0 NBTHOLE_PAIRS
Info:
Info: STRUCTURE SUMMARY:
Info: 57903 ATOMS
Info: 39119 BONDS
Info: 21613 ANGLES
Info: 3958 DIHEDRALS
Info: 204 IMPROPERS
Info: 71 CROSSTERMS
Info: 0 EXCLUSIONS
Info: 57171 RIGID BONDS
Info: 116538 DEGREES OF FREEDOM
Info: 19523 HYDROGEN GROUPS
Info: 4 ATOMS IN LARGEST HYDROGEN GROUP
Info: 19523 MIGRATION GROUPS
Info: 4 ATOMS IN LARGEST MIGRATION GROUP
Info: TOTAL MASS = 349200 amu
Info: TOTAL CHARGE = 1.35042e-06 e
Info: MASS DENSITY = 0.944227 g/cm^3
Info: ATOM DENSITY = 0.0942854 atoms/A^3
Info:
Info: ADDED 64628 IMPLICIT EXCLUSIONS
Info: NONBONDED TABLE R-SQUARED SPACING: 0.0625
Info: NONBONDED TABLE SIZE: 769 POINTS
Info: REMOVING COM VELOCITY 0.0320271 0.000611974 0.0188957
TCL: Minimizing for 500 steps
ETITLE: TS BOND ANGLE DIHED IMPRP ELECT VDW BOUNDARY MISC KINETIC TOTAL TEMP POTENTIAL TOTAL3 TEMPAVG PRESSURE GPRESSURE VOLUME PRESSAVG GPRESSAVG
ENERGY: 0 264.9985 843.7387 892.8885 37.7953 -185953.8461 14951630577.3665 0.0000 0.0000 0.0000 14951446662.9415 0.0000 14951446662.9415 14951446662.9415 0.0000 4684735522.1971 3984361097.0071 614125.0000 4684735522.1971 3984361097.0071
ENERGY: 100 89.3712 284.5424 816.1327 9.3419 -214055.6166 12757.3401 0.0000 0.0000 0.0000 -200098.8883 0.0000 -200098.8883 -200098.8883 0.0000 13496.2922 12696.8396 614125.0000 13496.2922 12696.8396
ENERGY: 200 160.2160 290.4075 790.6204 15.4234 -227340.9691 16164.2114 0.0000 0.0000 0.0000 -209920.0903 0.0000 -209920.0903 -209920.0903 0.0000 14910.6570 14052.1503 614125.0000 14910.6570 14052.1503
ENERGY: 300 233.7305 332.9788 784.1089 17.7337 -238399.8730 20826.2353 0.0000 0.0000 0.0000 -216205.0857 0.0000 -216205.0857 -216205.0857 0.0000 17100.3017 16209.9253 614125.0000 17100.3017 16209.9253
ENERGY: 400 422.9950 496.4902 796.9903 24.4637 -242200.1107 21862.6958 0.0000 0.0000 0.0000 -218596.4758 0.0000 -218596.4758 -218596.4758 0.0000 17536.4982 16631.8455 614125.0000 17536.4982 16631.8455
ENERGY: 500 95.3652 271.9749 778.2461 9.7693 -245487.8532 23607.7063 0.0000 0.0000 0.0000 -220724.7915 0.0000 -220724.7915 -220724.7915 0.0000 18453.3581 17549.5086 614125.0000 18453.3581 17549.5086
TCL: Running for 5000 steps
ETITLE: TS BOND ANGLE DIHED IMPRP ELECT VDW BOUNDARY MISC KINETIC TOTAL TEMP POTENTIAL TOTAL3 TEMPAVG PRESSURE GPRESSURE VOLUME PRESSAVG GPRESSAVG
ENERGY: 500 95.3652 271.9749 778.2461 9.7693 -245487.8531 23607.7063 0.0000 0.0000 0.0000 -220724.7914 0.0000 -220724.7914 -220730.5517 0.0000 -5483.3122 -5448.9644 614125.0000 -5483.3122 -5448.9644
ENERGY: 1500 214.7559 623.4314 881.5161 31.0184 -237420.0754 26332.5569 0.0000 0.0000 19569.2128 -189767.5839 169.0037 -209336.7967 -189736.2195 165.2602 -1861.3068 -1831.2319 614125.0000 -1780.8907 -1780.9820
ENERGY: 2500 253.3524 731.9523 878.4859 32.1902 -226722.6104 23878.3053 0.0000 0.0000 26488.4366 -174459.8876 228.7595 -200948.3242 -174407.7393 224.7100 -1587.7377 -1557.8904 614125.0000 -1493.8030 -1493.8190
ENERGY: 3500 276.3877 834.3106 889.2889 44.9058 -217608.4390 21800.8568 0.0000 0.0000 29710.7434 -164051.9459 256.5880 -193762.6893 -163986.2991 254.8207 -1420.9818 -1394.5868 614125.0000 -1389.9489 -1389.8268
ENERGY: 4500 251.4160 819.9284 873.2516 43.2692 -211604.4832 20297.2184 0.0000 0.0000 31555.9534 -157763.4463 272.5236 -189319.3997 -157684.5989 272.3010 -1316.9123 -1284.8171 614125.0000 -1252.1458 -1251.9583
ENERGY: 5500 284.0798 844.0070 890.4192 39.3971 -208452.2961 19831.0959 0.0000 0.0000 32872.6021 -153690.6950 283.8945 -186563.2971 -153614.3261 283.6349 -1096.0609 -1068.7898 614125.0000 -1242.8932 -1242.7796
